tests/data/power_flow/automatic-tap-regulator/step-up-transformer-max-voltage-tap/sym_output.json
{
  "version": "1.0",
  "type": "sym_output",
  "is_batch": false,
  "attributes": {},
  "data": {
    "node": [
      {
        "id": 2,
        "energized": 1,
        "u_pu": 0.999278516660926,
        "u": 149891.7774991389,
        "u_angle": -0.000940859459,
        "p": 10072090.38950087,
        "q": 6233932.488836197
      },
      {
        "id": 4,
        "energized": 1,
        "u_pu": 1.04527504169727,
        "u": 10975.38793782133,
        "u_angle": -2.648551665902222,
        "p": 1.347554049236793e-07,
        "q": -6.249688283352644e-08
      },
      {
        "id": 6,
        "energized": 1,
        "u_pu": 1.000888626113226,
        "u": 21018.66114837775,
        "u_angle": 2.531593366079055,
        "p": -10000000.00000001,
        "q": -4999999.999999996
      }
    ],
    "transformer": [
      {
        "id": 3,
        "energized": 1,
        "loading": 0.1794728270763556,
        "p_from": 10072090.38950087,
        "q_from": 6233932.488836197,
        "i_from": 45.62513918866066,
        "s_from": 11845206.58703947,
        "p_to": -10045576.12305796,
        "q_to": -5762159.458271895,
        "i_to": 609.2000361925834,
        "s_to": 11580849.76444753
      },
      {
        "id": 5,
        "energized": 1,
        "loading": 0.579042488222381,
        "p_from": 10045576.12305808,
        "q_from": 5762159.458271859,
        "i_from": 609.2000361925881,
        "s_from": 11580849.76444762,
        "p_to": -10000000.00000001,
        "q_to": -4999999.999999996,
        "i_to": 307.1067275936952,
        "s_to": 11180339.88749895
      }
    ],
    "sym_load": [
      {
        "id": 7,
        "energized": 1,
        "p": 10000000,
        "q": 5000000,
        "i": 307.1067275936951,
        "s": 11180339.88749895,
        "pf": 0.8944271909999159
      }
    ],
    "source": [
      {
        "id": 1,
        "energized": 1,
        "p": 10072090.38950087,
        "q": 6233932.488836197,
        "i": 45.62513918866066,
        "s": 11845206.58703947,
        "pf": 0.8503093901731802
      }
    ],
    "transformer_tap_regulator": [
      {
        "id": 8,
        "energized": 1,
        "tap_pos": 0
      }
    ]
  }
}
